! SEGMENTOS DE LINHA DE MEDIA TENSAO 
New Line.10229544 Phases=3 Bus1=94104M784.1.2.3 Bus2=440646M784.1.2.3 Linecode=2203016_M_3 Length=0.025 units=km
New Line.10229546 Phases=3 Bus1=440646M784.1.2.3 Bus2=440648M784.1.2.3 Linecode=2203016_M_3 Length=0.025 units=km
New Line.10366289 Phases=3 Bus1=10305455M784.1.2.3 Bus2=91019M784.1.2.3 Linecode=2203016_M_3 Length=0.016 units=km
New Line.10366291 Phases=3 Bus1=91019M784.1.2.3 Bus2=10305457M784.1.2.3 Linecode=2203016_M_3 Length=0.008 units=km
New Line.10455906 Phases=3 Bus1=91071M784.1.2.3 Bus2=12054628M784.1.2.3 Linecode=2203016_M_3 Length=0.005 units=km
New Line.10485721 Phases=3 Bus1=427759M784.1.2.3 Bus2=427814M784.1.2.3 Linecode=2203016_M_3 Length=0.031 units=km
New Line.10485723 Phases=3 Bus1=427814M784.1.2.3 Bus2=427842M784.1.2.3 Linecode=2203016_M_3 Length=0.028 units=km
New Line.10485725 Phases=3 Bus1=427842M784.1.2.3 Bus2=427907M784.1.2.3 Linecode=2203016_M_3 Length=0.045 units=km
New Line.10835674 Phases=3 Bus1=12351028M784.1.2.3 Bus2=440975M784.1.2.3 Linecode=2203016_M_3 Length=0.021 units=km
New Line.10841193 Phases=3 Bus1=10020818M784.1.2.3 Bus2=91556M784.1.2.3 Linecode=2202001_M_3 Length=0.021 units=km
New Line.10905247 Phases=3 Bus1=428555M784.1.2.3 Bus2=428470M784.1.2.3 Linecode=2212003_M_3 Length=0.023 units=km
New Line.10905248 Phases=3 Bus1=428600M784.1.2.3 Bus2=428555M784.1.2.3 Linecode=2212003_M_3 Length=0.035 units=km
New Line.10905249 Phases=3 Bus1=428637M784.1.2.3 Bus2=428600M784.1.2.3 Linecode=2203016_M_3 Length=0.028 units=km
New Line.10905250 Phases=3 Bus1=428704M784.1.2.3 Bus2=428637M784.1.2.3 Linecode=2203016_M_3 Length=0.034 units=km
New Line.10905251 Phases=3 Bus1=91085M784.1.2.3 Bus2=428704M784.1.2.3 Linecode=2203016_M_3 Length=0.048 units=km
New Line.109858 Phases=3 Bus1=13405079M784.1.2.3 Bus2=90888M784.1.2.3 Linecode=2203016_M_3 Length=0.028 units=km
New Line.109860 Phases=3 Bus1=90967M784.1.2.3 Bus2=90894M784.1.2.3 Linecode=2203016_M_3 Length=0.042 units=km
New Line.109861 Phases=3 Bus1=89529M784.1.2.3 Bus2=13405079M784.1.2.3 Linecode=2203016_M_3 Length=0.04 units=km
New Line.109862 Phases=3 Bus1=90887M784.1.2.3 Bus2=89529M784.1.2.3 Linecode=2203016_M_3 Length=0.045 units=km
New Line.109863 Phases=3 Bus1=90894M784.1.2.3 Bus2=90895M784.1.2.3 Linecode=2203016_M_3 Length=0.029 units=km
New Line.109866 Phases=3 Bus1=90895M784.1.2.3 Bus2=94101M784.1.2.3 Linecode=2203016_M_3 Length=0.045 units=km
New Line.109868 Phases=3 Bus1=94101M784.1.2.3 Bus2=90899M784.1.2.3 Linecode=2203016_M_3 Length=0.029 units=km
New Line.109869 Phases=3 Bus1=90899M784.1.2.3 Bus2=90900M784.1.2.3 Linecode=2203016_M_3 Length=0.015 units=km
New Line.109870 Phases=3 Bus1=90899M784.1.2.3 Bus2=90901M784.1.2.3 Linecode=2203016_M_3 Length=0.04 units=km
New Line.109874 Phases=3 Bus1=90901M784.1.2.3 Bus2=90904M784.1.2.3 Linecode=2203016_M_3 Length=0.041 units=km
New Line.109875 Phases=3 Bus1=90900M784.1.2.3 Bus2=90905M784.1.2.3 Linecode=2203016_M_3 Length=0.035 units=km
New Line.109877 Phases=3 Bus1=90904M784.1.2.3 Bus2=90908M784.1.2.3 Linecode=2203016_M_3 Length=0.035 units=km
New Line.109879 Phases=3 Bus1=90905M784.1.2.3 Bus2=90910M784.1.2.3 Linecode=2203016_M_3 Length=0.035 units=km
New Line.109880 Phases=3 Bus1=90910M784.1.2.3 Bus2=89530M784.1.2.3 Linecode=2203016_M_3 Length=0.013 units=km
New Line.109881 Phases=3 Bus1=89530M784.1.2.3 Bus2=90909M784.1.2.3 Linecode=2203016_M_3 Length=0.016 units=km
New Line.109882 Phases=3 Bus1=90908M784.1.2.3 Bus2=90911M784.1.2.3 Linecode=2203016_M_3 Length=0.039 units=km
New Line.109885 Phases=3 Bus1=90911M784.1.2.3 Bus2=90914M784.1.2.3 Linecode=2203016_M_3 Length=0.039 units=km
New Line.109915 Phases=3 Bus1=90998M784.1.2.3 Bus2=94098M784.1.2.3 Linecode=2203016_M_3 Length=0.036 units=km
New Line.109917 Phases=3 Bus1=91003M784.1.2.3 Bus2=91005M784.1.2.3 Linecode=2203016_M_3 Length=0.022 units=km
New Line.109919 Phases=3 Bus1=91005M784.1.2.3 Bus2=89524M784.1.2.3 Linecode=2203016_M_3 Length=0.019 units=km
New Line.109924 Phases=3 Bus1=91011M784.1.2.3 Bus2=91010M784.1.2.3 Linecode=2202001_M_3 Length=0.037 units=km
New Line.109925 Phases=3 Bus1=91012M784.1.2.3 Bus2=91011M784.1.2.3 Linecode=2202001_M_3 Length=0.044 units=km
New Line.109926 Phases=3 Bus1=91013M784.1.2.3 Bus2=91012M784.1.2.3 Linecode=2202001_M_3 Length=0.044 units=km
New Line.109927 Phases=3 Bus1=91015M784.1.2.3 Bus2=91013M784.1.2.3 Linecode=2203016_M_3 Length=0.029 units=km
New Line.109929 Phases=3 Bus1=89525M784.1.2.3 Bus2=91015M784.1.2.3 Linecode=2203016_M_3 Length=0.031 units=km
New Line.109930 Phases=3 Bus1=91014M784.1.2.3 Bus2=89525M784.1.2.3 Linecode=2203016_M_3 Length=0.047 units=km
New Line.109931 Phases=3 Bus1=91010M784.1.2.3 Bus2=91017M784.1.2.3 Linecode=2202001_M_3 Length=0.019 units=km
New Line.109934 Phases=3 Bus1=10305455M784.1.2.3 Bus2=91014M784.1.2.3 Linecode=2203016_M_3 Length=0.016 units=km
New Line.109936 Phases=3 Bus1=91017M784.1.2.3 Bus2=91021M784.1.2.3 Linecode=2202001_M_3 Length=0.021 units=km
New Line.109940 Phases=3 Bus1=91021M784.1.2.3 Bus2=91025M784.1.2.3 Linecode=2202001_M_3 Length=0.04 units=km
New Line.109941 Phases=3 Bus1=91019M784.1.2.3 Bus2=91026M784.1.2.3 Linecode=2203016_M_3 Length=0.041 units=km
New Line.109946 Phases=3 Bus1=91026M784.1.2.3 Bus2=91030M784.1.2.3 Linecode=2203016_M_3 Length=0.042 units=km
New Line.109952 Phases=3 Bus1=91030M784.1.2.3 Bus2=91036M784.1.2.3 Linecode=2203016_M_3 Length=0.04 units=km
New Line.109958 Phases=3 Bus1=91036M784.1.2.3 Bus2=91041M784.1.2.3 Linecode=2203016_M_3 Length=0.039 units=km
New Line.109961 Phases=3 Bus1=91044M784.1.2.3 Bus2=91045M784.1.2.3 Linecode=2203016_M_3 Length=0.018 units=km
New Line.109962 Phases=3 Bus1=91046M784.1.2.3 Bus2=91044M784.1.2.3 Linecode=2203016_M_3 Length=0.023 units=km
New Line.109963 Phases=3 Bus1=91041M784.1.2.3 Bus2=91047M784.1.2.3 Linecode=2203016_M_3 Length=0.037 units=km
New Line.109965 Phases=3 Bus1=91048M784.1.2.3 Bus2=91046M784.1.2.3 Linecode=2203016_M_3 Length=0.04 units=km
New Line.109966 Phases=3 Bus1=91045M784.1.2.3 Bus2=90967M784.1.2.3 Linecode=2203016_M_3 Length=0.044 units=km
New Line.109967 Phases=3 Bus1=91047M784.1.2.3 Bus2=90887M784.1.2.3 Linecode=2203016_M_3 Length=0.044 units=km
New Line.109968 Phases=3 Bus1=90888M784.1.2.3 Bus2=91048M784.1.2.3 Linecode=2203016_M_3 Length=0.043 units=km
New Line.109981 Phases=3 Bus1=91113M784.1.2.3 Bus2=91123M784.1.2.3 Linecode=2203016_M_3 Length=0.04 units=km
New Line.109991 Phases=3 Bus1=91123M784.1.2.3 Bus2=90970M784.1.2.3 Linecode=2203016_M_3 Length=0.042 units=km
New Line.110000 Phases=3 Bus1=90970M784.1.2.3 Bus2=90978M784.1.2.3 Linecode=2203016_M_3 Length=0.027 units=km
New Line.110007 Phases=3 Bus1=90978M784.1.2.3 Bus2=90984M784.1.2.3 Linecode=2203016_M_3 Length=0.031 units=km
New Line.110010 Phases=3 Bus1=90987M784.1.2.3 Bus2=90988M784.1.2.3 Linecode=2203016_M_3 Length=0.03 units=km
New Line.110012 Phases=3 Bus1=90988M784.1.2.3 Bus2=90990M784.1.2.3 Linecode=2203016_M_3 Length=0.032 units=km
New Line.110013 Phases=3 Bus1=90990M784.1.2.3 Bus2=90991M784.1.2.3 Linecode=2203016_M_3 Length=0.031 units=km
New Line.110015 Phases=3 Bus1=90991M784.1.2.3 Bus2=94095M784.1.2.3 Linecode=2203016_M_3 Length=0.034 units=km
New Line.110017 Phases=3 Bus1=94095M784.1.2.3 Bus2=90994M784.1.2.3 Linecode=2203016_M_3 Length=0.039 units=km
New Line.110018 Phases=3 Bus1=90994M784.1.2.3 Bus2=90995M784.1.2.3 Linecode=2203016_M_3 Length=0.041 units=km
New Line.110020 Phases=3 Bus1=90995M784.1.2.3 Bus2=90997M784.1.2.3 Linecode=2203016_M_3 Length=0.04 units=km
New Line.110021 Phases=3 Bus1=90984M784.1.2.3 Bus2=90998M784.1.2.3 Linecode=2203016_M_3 Length=0.027 units=km
New Line.110022 Phases=3 Bus1=90998M784.1.2.3 Bus2=90987M784.1.2.3 Linecode=2203016_M_3 Length=0.019 units=km
New Line.110026 Phases=3 Bus1=90997M784.1.2.3 Bus2=91001M784.1.2.3 Linecode=2203016_M_3 Length=0.032 units=km
New Line.110027 Phases=3 Bus1=91001M784.1.2.3 Bus2=91003M784.1.2.3 Linecode=2203016_M_3 Length=0.029 units=km
New Line.110029 Phases=3 Bus1=91061M784.1.2.3 Bus2=91065M784.1.2.3 Linecode=2203016_M_3 Length=0.031 units=km
New Line.110036 Phases=3 Bus1=91065M784.1.2.3 Bus2=91071M784.1.2.3 Linecode=2203016_M_3 Length=0.042 units=km
New Line.110037 Phases=3 Bus1=89522M784.1.2.3 Bus2=12820193M784.1.2.3 Linecode=2203016_M_3 Length=0.033 units=km
New Line.110039 Phases=3 Bus1=91068M784.1.2.3 Bus2=91072M784.1.2.3 Linecode=2203016_M_3 Length=0.026 units=km
New Line.110041 Phases=3 Bus1=91071M784.1.2.3 Bus2=91074M784.1.2.3 Linecode=2203016_M_3 Length=0.026 units=km
New Line.110047 Phases=3 Bus1=91074M784.1.2.3 Bus2=91080M784.1.2.3 Linecode=2203016_M_3 Length=0.026 units=km
New Line.110049 Phases=3 Bus1=91072M784.1.2.3 Bus2=91082M784.1.2.3 Linecode=2203016_M_3 Length=0.033 units=km
New Line.110053 Phases=3 Bus1=91080M784.1.2.3 Bus2=91085M784.1.2.3 Linecode=2203016_M_3 Length=0.031 units=km
New Line.110054 Phases=3 Bus1=91085M784.1.2.3 Bus2=91086M784.1.2.3 Linecode=2203016_M_3 Length=0.015 units=km
New Line.110055 Phases=3 Bus1=91082M784.1.2.3 Bus2=91087M784.1.2.3 Linecode=2203016_M_3 Length=0.045 units=km
New Line.110063 Phases=3 Bus1=91087M784.1.2.3 Bus2=91094M784.1.2.3 Linecode=2203016_M_3 Length=0.035 units=km
New Line.110074 Phases=3 Bus1=91094M784.1.2.3 Bus2=91105M784.1.2.3 Linecode=2203016_M_3 Length=0.032 units=km
New Line.110089 Phases=3 Bus1=91174M784.1.2.3 Bus2=91179M784.1.2.3 Linecode=2203016_M_3 Length=0.034 units=km
New Line.110091 Phases=3 Bus1=91175M784.1.2.3 Bus2=91181M784.1.2.3 Linecode=2203016_M_3 Length=0.047 units=km
New Line.110092 Phases=3 Bus1=94076M784.1.2.3 Bus2=89518M784.1.2.3 Linecode=2202000_M_3 Length=0.028 units=km
New Line.110098 Phases=3 Bus1=91181M784.1.2.3 Bus2=91188M784.1.2.3 Linecode=2203016_M_3 Length=0.038 units=km
New Line.110099 Phases=3 Bus1=91179M784.1.2.3 Bus2=91189M784.1.2.3 Linecode=2203016_M_3 Length=0.031 units=km
New Line.110105 Phases=3 Bus1=91183M784.1.2.3 Bus2=91194M784.1.2.3 Linecode=2203020_M_3 Length=0.04 units=km
New Line.110106 Phases=3 Bus1=91188M784.1.2.3 Bus2=91195M784.1.2.3 Linecode=2203016_M_3 Length=0.039 units=km
New Line.110107 Phases=3 Bus1=91189M784.1.2.3 Bus2=91196M784.1.2.3 Linecode=2203016_M_3 Length=0.034 units=km
New Line.110109 Phases=3 Bus1=91194M784.1.2.3 Bus2=91198M784.1.2.3 Linecode=2203016_M_3 Length=0.02 units=km
New Line.110115 Phases=3 Bus1=91196M784.1.2.3 Bus2=91203M784.1.2.3 Linecode=2203016_M_3 Length=0.033 units=km
New Line.110133 Phases=3 Bus1=91211M784.1.2.3 Bus2=91054M784.1.2.3 Linecode=2203016_M_3 Length=0.04 units=km
New Line.110144 Phases=3 Bus1=91292M784.1.2.3 Bus2=94070M784.1.2.3 Linecode=2203016_M_3 Length=0.03 units=km
New Line.110145 Phases=3 Bus1=91212M784.1.2.3 Bus2=91286M784.1.2.3 Linecode=2203016_M_3 Length=0.035 units=km
New Line.110146 Phases=3 Bus1=91289M784.1.2.3 Bus2=91131M784.1.2.3 Linecode=2203016_M_3 Length=0.026 units=km
New Line.110147 Phases=3 Bus1=91132M784.1.2.3 Bus2=91212M784.1.2.3 Linecode=2203016_M_3 Length=0.03 units=km
New Line.110148 Phases=3 Bus1=91131M784.1.2.3 Bus2=91133M784.1.2.3 Linecode=2203016_M_3 Length=0.019 units=km
New Line.110150 Phases=3 Bus1=91135M784.1.2.3 Bus2=91292M784.1.2.3 Linecode=2203016_M_3 Length=0.03 units=km
New Line.110151 Phases=3 Bus1=91136M784.1.2.3 Bus2=91132M784.1.2.3 Linecode=2203016_M_3 Length=0.022 units=km
New Line.110153 Phases=3 Bus1=91138M784.1.2.3 Bus2=91135M784.1.2.3 Linecode=2203016_M_3 Length=0.008 units=km
New Line.110156 Phases=3 Bus1=91288M784.1.2.3 Bus2=91141M784.1.2.3 Linecode=2203020_M_3 Length=0.062 units=km
New Line.110157 Phases=3 Bus1=91133M784.1.2.3 Bus2=91142M784.1.2.3 Linecode=2203016_M_3 Length=0.036 units=km
New Line.110158 Phases=3 Bus1=91142M784.1.2.3 Bus2=91138M784.1.2.3 Linecode=2203016_M_3 Length=0.011 units=km
New Line.110162 Phases=3 Bus1=91142M784.1.2.3 Bus2=91145M784.1.2.3 Linecode=2203016_M_3 Length=0.017 units=km
New Line.110163 Phases=3 Bus1=91146M784.1.2.3 Bus2=91136M784.1.2.3 Linecode=2203016_M_3 Length=0.038 units=km
New Line.110164 Phases=3 Bus1=91137M784.1.2.3 Bus2=91147M784.1.2.3 Linecode=2203009_M_3 Length=0.033 units=km
New Line.110165 Phases=3 Bus1=91146M784.1.2.3 Bus2=91148M784.1.2.3 Linecode=2203016_M_3 Length=0.013 units=km
New Line.110168 Phases=3 Bus1=91145M784.1.2.3 Bus2=91151M784.1.2.3 Linecode=2203016_M_3 Length=0.028 units=km
New Line.110169 Phases=3 Bus1=91148M784.1.2.3 Bus2=91152M784.1.2.3 Linecode=2203016_M_3 Length=0.017 units=km
New Line.110170 Phases=3 Bus1=91153M784.1.2.3 Bus2=91146M784.1.2.3 Linecode=2203016_M_3 Length=0.037 units=km
New Line.110171 Phases=3 Bus1=91141M784.1.2.3 Bus2=91154M784.1.2.3 Linecode=2203020_M_3 Length=0.028 units=km
New Line.110173 Phases=3 Bus1=91156M784.1.2.3 Bus2=91153M784.1.2.3 Linecode=2203016_M_3 Length=0.019 units=km
New Line.110177 Phases=3 Bus1=91151M784.1.2.3 Bus2=91159M784.1.2.3 Linecode=2203016_M_3 Length=0.028 units=km
New Line.110178 Phases=3 Bus1=91147M784.1.2.3 Bus2=91160M784.1.2.3 Linecode=2203009_M_3 Length=0.044 units=km
New Line.110179 Phases=3 Bus1=91160M784.1.2.3 Bus2=91156M784.1.2.3 Linecode=2203009_M_3 Length=0.013 units=km
New Line.110180 Phases=3 Bus1=91152M784.1.2.3 Bus2=91161M784.1.2.3 Linecode=2203016_M_3 Length=0.033 units=km
New Line.110182 Phases=3 Bus1=91159M784.1.2.3 Bus2=94073M784.1.2.3 Linecode=2203016_M_3 Length=0.025 units=km
New Line.110184 Phases=3 Bus1=91154M784.1.2.3 Bus2=91164M784.1.2.3 Linecode=2203020_M_3 Length=0.046 units=km
New Line.110185 Phases=3 Bus1=91161M784.1.2.3 Bus2=91165M784.1.2.3 Linecode=2203014_M_3 Length=0.031 units=km
New Line.110190 Phases=3 Bus1=94073M784.1.2.3 Bus2=89517M784.1.2.3 Linecode=2203016_M_3 Length=0.028 units=km
New Line.110192 Phases=3 Bus1=91164M784.1.2.3 Bus2=91171M784.1.2.3 Linecode=2203020_M_3 Length=0.044 units=km
New Line.110193 Phases=3 Bus1=91171M784.1.2.3 Bus2=91170M784.1.2.3 Linecode=2203020_M_3 Length=0.014 units=km
New Line.110194 Phases=3 Bus1=91165M784.1.2.3 Bus2=91172M784.1.2.3 Linecode=2202000_M_3 Length=0.031 units=km
New Line.110195 Phases=3 Bus1=91170M784.1.2.3 Bus2=94075M784.1.2.3 Linecode=2203020_M_3 Length=0.03 units=km
New Line.110197 Phases=3 Bus1=91169M784.1.2.3 Bus2=91174M784.1.2.3 Linecode=2203016_M_3 Length=0.031 units=km
New Line.110198 Phases=3 Bus1=94075M784.1.2.3 Bus2=91175M784.1.2.3 Linecode=2203020_M_3 Length=0.029 units=km
New Line.110199 Phases=3 Bus1=91172M784.1.2.3 Bus2=94076M784.1.2.3 Linecode=2202000_M_3 Length=0.032 units=km
New Line.110200 Phases=3 Bus1=91247M784.1.2.3 Bus2=91236M784.1.2.3 Linecode=2203016_M_3 Length=0.037 units=km
New Line.110204 Phases=3 Bus1=91241M784.1.2.3 Bus2=91251M784.1.2.3 Linecode=2203020_M_3 Length=0.048 units=km
New Line.110207 Phases=3 Bus1=94060M784.1.2.3 Bus2=91254M784.1.2.3 Linecode=2202001_M_3 Length=0.032 units=km
New Line.110212 Phases=3 Bus1=91257M784.1.2.3 Bus2=91247M784.1.2.3 Linecode=2203016_M_3 Length=0.022 units=km
New Line.110219 Phases=3 Bus1=91251M784.1.2.3 Bus2=91263M784.1.2.3 Linecode=2203020_M_3 Length=0.05 units=km
New Line.110223 Phases=3 Bus1=91267M784.1.2.3 Bus2=91262M784.1.2.3 Linecode=2203016_M_3 Length=0.033 units=km
New Line.110232 Phases=3 Bus1=91273M784.1.2.3 Bus2=91257M784.1.2.3 Linecode=2203016_M_3 Length=0.048 units=km
New Line.110233 Phases=3 Bus1=91263M784.1.2.3 Bus2=94067M784.1.2.3 Linecode=2203020_M_3 Length=0.03 units=km
New Line.110235 Phases=3 Bus1=91273M784.1.2.3 Bus2=89515M784.1.2.3 Linecode=2203016_M_3 Length=0.01 units=km
New Line.110236 Phases=3 Bus1=89515M784.1.2.3 Bus2=91267M784.1.2.3 Linecode=2203016_M_3 Length=0.022 units=km
New Line.110238 Phases=3 Bus1=91275M784.1.2.3 Bus2=91264M784.1.2.3 Linecode=2203016_M_3 Length=0.034 units=km
New Line.110241 Phases=3 Bus1=94067M784.1.2.3 Bus2=91277M784.1.2.3 Linecode=2203020_M_3 Length=0.03 units=km
New Line.110245 Phases=3 Bus1=91281M784.1.2.3 Bus2=91275M784.1.2.3 Linecode=2203016_M_3 Length=0.029 units=km
New Line.110246 Phases=3 Bus1=91282M784.1.2.3 Bus2=91273M784.1.2.3 Linecode=2203016_M_3 Length=0.046 units=km
New Line.110247 Phases=3 Bus1=91277M784.1.2.3 Bus2=91283M784.1.2.3 Linecode=2203020_M_3 Length=0.033 units=km
New Line.110249 Phases=3 Bus1=94070M784.1.2.3 Bus2=91281M784.1.2.3 Linecode=2203016_M_3 Length=0.03 units=km
New Line.110251 Phases=3 Bus1=91286M784.1.2.3 Bus2=91282M784.1.2.3 Linecode=2203016_M_3 Length=0.033 units=km
New Line.110253 Phases=3 Bus1=91288M784.1.2.3 Bus2=91285M784.1.2.3 Linecode=2203020_M_3 Length=0.015 units=km
New Line.110254 Phases=3 Bus1=91283M784.1.2.3 Bus2=91288M784.1.2.3 Linecode=2203020_M_3 Length=0.033 units=km
New Line.110255 Phases=3 Bus1=91286M784.1.2.3 Bus2=91289M784.1.2.3 Linecode=2203016_M_3 Length=0.022 units=km
New Line.110260 Phases=3 Bus1=91346M784.1.2.3 Bus2=91366M784.1.2.3 Linecode=2203020_M_3 Length=0.041 units=km
New Line.110261 Phases=3 Bus1=91359M784.1.2.3 Bus2=91367M784.1.2.3 Linecode=2203016_M_3 Length=0.028 units=km
New Line.110266 Phases=3 Bus1=13384899M784.1.2.3 Bus2=91372M784.1.2.3 Linecode=2202001_M_3 Length=0.03 units=km
New Line.110267 Phases=3 Bus1=91373M784.1.2.3 Bus2=94056M784.1.2.3 Linecode=2203016_M_3 Length=0.038 units=km
New Line.110272 Phases=3 Bus1=91367M784.1.2.3 Bus2=89508M784.1.2.3 Linecode=2203016_M_3 Length=0.031 units=km
New Line.110273 Phases=3 Bus1=89508M784.1.2.3 Bus2=91362M784.1.2.3 Linecode=2203016_M_3 Length=0.037 units=km
New Line.110277 Phases=3 Bus1=91366M784.1.2.3 Bus2=91220M784.1.2.3 Linecode=2203020_M_3 Length=0.04 units=km
New Line.110280 Phases=3 Bus1=91221M784.1.2.3 Bus2=91373M784.1.2.3 Linecode=2203016_M_3 Length=0.024 units=km
New Line.110281 Phases=3 Bus1=91214M784.1.2.3 Bus2=91222M784.1.2.3 Linecode=2202001_M_3 Length=0.035 units=km
New Line.110285 Phases=3 Bus1=91372M784.1.2.3 Bus2=91226M784.1.2.3 Linecode=2202001_M_3 Length=0.029 units=km
New Line.110298 Phases=3 Bus1=91222M784.1.2.3 Bus2=89511M784.1.2.3 Linecode=2202001_M_3 Length=0.033 units=km
New Line.110302 Phases=3 Bus1=91236M784.1.2.3 Bus2=91221M784.1.2.3 Linecode=2203016_M_3 Length=0.026 units=km
New Line.110305 Phases=3 Bus1=91239M784.1.2.3 Bus2=94059M784.1.2.3 Linecode=2203014_M_3 Length=0.006 units=km
New Line.110307 Phases=3 Bus1=91220M784.1.2.3 Bus2=91241M784.1.2.3 Linecode=2203020_M_3 Length=0.041 units=km
New Line.110312 Phases=3 Bus1=91226M784.1.2.3 Bus2=94060M784.1.2.3 Linecode=2202001_M_3 Length=0.034 units=km
New Line.110313 Phases=3 Bus1=91246M784.1.2.3 Bus2=91239M784.1.2.3 Linecode=2203014_M_3 Length=0.028 units=km
New Line.110318 Phases=3 Bus1=91305M784.1.2.3 Bus2=91309M784.1.2.3 Linecode=2203016_M_3 Length=0.022 units=km
New Line.110319 Phases=3 Bus1=91296M784.1.2.3 Bus2=91310M784.1.2.3 Linecode=2203020_M_3 Length=0.034 units=km
New Line.110322 Phases=3 Bus1=91303M784.1.2.3 Bus2=91313M784.1.2.3 Linecode=2202001_M_3 Length=0.034 units=km
New Line.110323 Phases=3 Bus1=91314M784.1.2.3 Bus2=91304M784.1.2.3 Linecode=2203016_M_3 Length=0.034 units=km
New Line.110324 Phases=3 Bus1=91315M784.1.2.3 Bus2=91305M784.1.2.3 Linecode=2203016_M_3 Length=0.027 units=km
New Line.110325 Phases=3 Bus1=91309M784.1.2.3 Bus2=91316M784.1.2.3 Linecode=2203016_M_3 Length=0.018 units=km
New Line.110329 Phases=3 Bus1=91313M784.1.2.3 Bus2=91321M784.1.2.3 Linecode=2202001_M_3 Length=0.034 units=km
New Line.110332 Phases=3 Bus1=91324M784.1.2.3 Bus2=91315M784.1.2.3 Linecode=2203016_M_3 Length=0.023 units=km
New Line.110334 Phases=3 Bus1=91326M784.1.2.3 Bus2=91314M784.1.2.3 Linecode=2203016_M_3 Length=0.034 units=km
New Line.110335 Phases=3 Bus1=91312M784.1.2.3 Bus2=91327M784.1.2.3 Linecode=2202001_M_3 Length=0.029 units=km
New Line.110338 Phases=3 Bus1=91316M784.1.2.3 Bus2=91330M784.1.2.3 Linecode=2203016_M_3 Length=0.042 units=km
New Line.110339 Phases=3 Bus1=91310M784.1.2.3 Bus2=91331M784.1.2.3 Linecode=2203020_M_3 Length=0.04 units=km
New Line.110341 Phases=3 Bus1=91321M784.1.2.3 Bus2=91333M784.1.2.3 Linecode=2202001_M_3 Length=0.036 units=km
New Line.110342 Phases=3 Bus1=91334M784.1.2.3 Bus2=91326M784.1.2.3 Linecode=2203016_M_3 Length=0.026 units=km
New Line.110345 Phases=3 Bus1=91338M784.1.2.3 Bus2=91324M784.1.2.3 Linecode=2203016_M_3 Length=0.032 units=km
New Line.110348 Phases=3 Bus1=91327M784.1.2.3 Bus2=91341M784.1.2.3 Linecode=2202001_M_3 Length=0.03 units=km
New Line.110350 Phases=3 Bus1=91333M784.1.2.3 Bus2=91343M784.1.2.3 Linecode=2202001_M_3 Length=0.035 units=km
New Line.110353 Phases=3 Bus1=91331M784.1.2.3 Bus2=91346M784.1.2.3 Linecode=2203020_M_3 Length=0.039 units=km
New Line.110361 Phases=3 Bus1=94056M784.1.2.3 Bus2=91338M784.1.2.3 Linecode=2203016_M_3 Length=0.031 units=km
New Line.110362 Phases=3 Bus1=91343M784.1.2.3 Bus2=91355M784.1.2.3 Linecode=2202001_M_3 Length=0.034 units=km
New Line.110364 Phases=3 Bus1=91341M784.1.2.3 Bus2=13384899M784.1.2.3 Linecode=2202001_M_3 Length=0.029 units=km
New Line.110367 Phases=3 Bus1=91351M784.1.2.3 Bus2=91359M784.1.2.3 Linecode=2203016_M_3 Length=0.025 units=km
New Line.110370 Phases=3 Bus1=91362M784.1.2.3 Bus2=91347M784.1.2.3 Linecode=2203016_M_3 Length=0.04 units=km
New Line.110374 Phases=3 Bus1=94046M784.1.2.3 Bus2=91414M784.1.2.3 Linecode=2203016_M_3 Length=0.024 units=km
New Line.110376 Phases=3 Bus1=91408M784.1.2.3 Bus2=91422M784.1.2.3 Linecode=2203020_M_3 Length=0.03 units=km
New Line.110379 Phases=3 Bus1=91425M784.1.2.3 Bus2=94043M784.1.2.3 Linecode=2203020_M_3 Length=0.054 units=km
New Line.110380 Phases=3 Bus1=91426M784.1.2.3 Bus2=91417M784.1.2.3 Linecode=2203016_M_3 Length=0.029 units=km
New Line.110381 Phases=3 Bus1=91427M784.1.2.3 Bus2=94046M784.1.2.3 Linecode=2203016_M_3 Length=0.033 units=km
New Line.110389 Phases=3 Bus1=91435M784.1.2.3 Bus2=91426M784.1.2.3 Linecode=2203016_M_3 Length=0.032 units=km
New Line.110395 Phases=3 Bus1=91422M784.1.2.3 Bus2=91441M784.1.2.3 Linecode=2203020_M_3 Length=0.036 units=km
New Line.110397 Phases=3 Bus1=91443M784.1.2.3 Bus2=91435M784.1.2.3 Linecode=2203016_M_3 Length=0.025 units=km
New Line.110398 Phases=3 Bus1=91444M784.1.2.3 Bus2=91443M784.1.2.3 Linecode=2203016_M_3 Length=0.013 units=km
New Line.110400 Phases=3 Bus1=91446M784.1.2.3 Bus2=91431M784.1.2.3 Linecode=2202001_M_3 Length=0.028 units=km
New Line.110402 Phases=3 Bus1=91441M784.1.2.3 Bus2=91447M784.1.2.3 Linecode=2203020_M_3 Length=0.033 units=km
New Line.110404 Phases=3 Bus1=89507M784.1.2.3 Bus2=91425M784.1.2.3 Linecode=2203020_M_3 Length=0.059 units=km
New Line.110405 Phases=3 Bus1=91441M784.1.2.3 Bus2=89507M784.1.2.3 Linecode=2203020_M_3 Length=0.028 units=km
New Line.110406 Phases=3 Bus1=91449M784.1.2.3 Bus2=91445M784.1.2.3 Linecode=2203016_M_3 Length=0.031 units=km
New Line.110407 Phases=3 Bus1=91447M784.1.2.3 Bus2=91450M784.1.2.3 Linecode=2203020_M_3 Length=0.026 units=km
New Line.110411 Phases=3 Bus1=91453M784.1.2.3 Bus2=91454M784.1.2.3 Linecode=2202001_M_3 Length=0.029 units=km
New Line.110412 Phases=3 Bus1=91454M784.1.2.3 Bus2=91374M784.1.2.3 Linecode=2202001_M_3 Length=0.037 units=km
New Line.110414 Phases=3 Bus1=91295M784.1.2.3 Bus2=91446M784.1.2.3 Linecode=2202001_M_3 Length=0.018 units=km
New Line.110415 Phases=3 Bus1=91374M784.1.2.3 Bus2=91295M784.1.2.3 Linecode=2202001_M_3 Length=0.028 units=km
New Line.110416 Phases=3 Bus1=91441M784.1.2.3 Bus2=91296M784.1.2.3 Linecode=2203020_M_3 Length=0.029 units=km
New Line.110417 Phases=3 Bus1=91297M784.1.2.3 Bus2=91449M784.1.2.3 Linecode=2203016_M_3 Length=0.024 units=km
New Line.110418 Phases=3 Bus1=91298M784.1.2.3 Bus2=91444M784.1.2.3 Linecode=2203016_M_3 Length=0.043 units=km
New Line.110424 Phases=3 Bus1=91295M784.1.2.3 Bus2=91303M784.1.2.3 Linecode=2202001_M_3 Length=0.042 units=km
New Line.110425 Phases=3 Bus1=91304M784.1.2.3 Bus2=91298M784.1.2.3 Linecode=2203016_M_3 Length=0.02 units=km
New Line.110426 Phases=3 Bus1=91305M784.1.2.3 Bus2=91297M784.1.2.3 Linecode=2203016_M_3 Length=0.026 units=km
New Line.110433 Phases=3 Bus1=91534M784.1.2.3 Bus2=94036M784.1.2.3 Linecode=2203016_M_3 Length=0.026 units=km
New Line.110434 Phases=3 Bus1=91526M784.1.2.3 Bus2=91535M784.1.2.3 Linecode=2202006_M_3 Length=0.028 units=km
New Line.110436 Phases=3 Bus1=91536M784.1.2.3 Bus2=91530M784.1.2.3 Linecode=2203016_M_3 Length=0.024 units=km
New Line.110438 Phases=3 Bus1=91375M784.1.2.3 Bus2=91534M784.1.2.3 Linecode=2203016_M_3 Length=0.019 units=km
New Line.110442 Phases=3 Bus1=91379M784.1.2.3 Bus2=91536M784.1.2.3 Linecode=2203016_M_3 Length=0.026 units=km
New Line.110443 Phases=3 Bus1=91535M784.1.2.3 Bus2=91380M784.1.2.3 Linecode=2203020_M_3 Length=0.029 units=km
New Line.110444 Phases=3 Bus1=91375M784.1.2.3 Bus2=91381M784.1.2.3 Linecode=2203016_M_3 Length=0.018 units=km
New Line.110445 Phases=3 Bus1=91381M784.1.2.3 Bus2=91382M784.1.2.3 Linecode=2203016_M_3 Length=0.017 units=km
New Line.110446 Phases=3 Bus1=91382M784.1.2.3 Bus2=91379M784.1.2.3 Linecode=2203016_M_3 Length=0.015 units=km
New Line.110448 Phases=3 Bus1=91384M784.1.2.3 Bus2=91375M784.1.2.3 Linecode=2203016_M_3 Length=0.039 units=km
New Line.110456 Phases=3 Bus1=91391M784.1.2.3 Bus2=94037M784.1.2.3 Linecode=2203020_M_3 Length=0.021 units=km
New Line.110457 Phases=3 Bus1=91380M784.1.2.3 Bus2=91391M784.1.2.3 Linecode=2203020_M_3 Length=0.039 units=km
New Line.110459 Phases=3 Bus1=91382M784.1.2.3 Bus2=91393M784.1.2.3 Linecode=2203016_M_3 Length=0.047 units=km
New Line.110460 Phases=3 Bus1=91394M784.1.2.3 Bus2=91384M784.1.2.3 Linecode=2203016_M_3 Length=0.043 units=km
New Line.110462 Phases=3 Bus1=91395M784.1.2.3 Bus2=91394M784.1.2.3 Linecode=2203016_M_3 Length=0.024 units=km
New Line.110466 Phases=3 Bus1=91391M784.1.2.3 Bus2=94042M784.1.2.3 Linecode=2203020_M_3 Length=0.029 units=km
New Line.110467 Phases=3 Bus1=91399M784.1.2.3 Bus2=91395M784.1.2.3 Linecode=2203016_M_3 Length=0.036 units=km
New Line.110470 Phases=3 Bus1=91403M784.1.2.3 Bus2=91399M784.1.2.3 Linecode=2203016_M_3 Length=0.039 units=km
New Line.110471 Phases=3 Bus1=94043M784.1.2.3 Bus2=91397M784.1.2.3 Linecode=2202001_M_3 Length=0.041 units=km
New Line.110475 Phases=3 Bus1=94044M784.1.2.3 Bus2=91401M784.1.2.3 Linecode=2203016_M_3 Length=0.029 units=km
New Line.110477 Phases=3 Bus1=94042M784.1.2.3 Bus2=91408M784.1.2.3 Linecode=2203020_M_3 Length=0.031 units=km
New Line.110479 Phases=3 Bus1=91410M784.1.2.3 Bus2=91403M784.1.2.3 Linecode=2203016_M_3 Length=0.029 units=km
New Line.110482 Phases=3 Bus1=91414M784.1.2.3 Bus2=91410M784.1.2.3 Linecode=2203016_M_3 Length=0.025 units=km
New Line.110484 Phases=3 Bus1=91417M784.1.2.3 Bus2=94044M784.1.2.3 Linecode=2203016_M_3 Length=0.04 units=km
New Line.110492 Phases=3 Bus1=13384897M784.1.2.3 Bus2=94171M784.1.2.3 Linecode=2203016_M_3 Length=0.025 units=km
New Line.110493 Phases=3 Bus1=91490M784.1.2.3 Bus2=91481M784.1.2.3 Linecode=2203016_M_3 Length=0.03 units=km
New Line.110507 Phases=3 Bus1=91499M784.1.2.3 Bus2=91490M784.1.2.3 Linecode=2203016_M_3 Length=0.03 units=km
New Line.110511 Phases=3 Bus1=91498M784.1.2.3 Bus2=91503M784.1.2.3 Linecode=2203016_M_3 Length=0.008 units=km
New Line.110518 Phases=3 Bus1=91507M784.1.2.3 Bus2=91499M784.1.2.3 Linecode=2203016_M_3 Length=0.036 units=km
New Line.110526 Phases=3 Bus1=91514M784.1.2.3 Bus2=91507M784.1.2.3 Linecode=2203016_M_3 Length=0.03 units=km
New Line.110537 Phases=3 Bus1=91519M784.1.2.3 Bus2=91526M784.1.2.3 Linecode=2202006_M_3 Length=0.017 units=km
New Line.110540 Phases=3 Bus1=94036M784.1.2.3 Bus2=91514M784.1.2.3 Linecode=2203016_M_3 Length=0.035 units=km
New Line.110545 Phases=3 Bus1=91593M784.1.2.3 Bus2=91599M784.1.2.3 Linecode=2202001_M_3 Length=0.031 units=km
New Line.110547 Phases=3 Bus1=94160M784.1.2.3 Bus2=91595M784.1.2.3 Linecode=2202001_M_3 Length=0.029 units=km
New Line.110554 Phases=3 Bus1=91599M784.1.2.3 Bus2=91607M784.1.2.3 Linecode=2203016_M_3 Length=0.03 units=km
New Line.110555 Phases=3 Bus1=91608M784.1.2.3 Bus2=94160M784.1.2.3 Linecode=2202001_M_3 Length=0.034 units=km
New Line.110562 Phases=3 Bus1=91613M784.1.2.3 Bus2=91608M784.1.2.3 Linecode=2202001_M_3 Length=0.031 units=km
New Line.110568 Phases=3 Bus1=91537M784.1.2.3 Bus2=91613M784.1.2.3 Linecode=2202001_M_3 Length=0.031 units=km
New Line.110571 Phases=3 Bus1=91613M784.1.2.3 Bus2=91458M784.1.2.3 Linecode=2202001_M_3 Length=0.017 units=km
New Line.110577 Phases=3 Bus1=91463M784.1.2.3 Bus2=91537M784.1.2.3 Linecode=2202001_M_3 Length=0.03 units=km
New Line.110579 Phases=3 Bus1=91458M784.1.2.3 Bus2=91467M784.1.2.3 Linecode=2202001_M_3 Length=0.036 units=km
New Line.110584 Phases=3 Bus1=91471M784.1.2.3 Bus2=91463M784.1.2.3 Linecode=2202001_M_3 Length=0.033 units=km
New Line.110586 Phases=3 Bus1=91467M784.1.2.3 Bus2=91473M784.1.2.3 Linecode=2202001_M_3 Length=0.024 units=km
New Line.110597 Phases=3 Bus1=91481M784.1.2.3 Bus2=91471M784.1.2.3 Linecode=2202001_M_3 Length=0.036 units=km
New Line.110598 Phases=3 Bus1=91473M784.1.2.3 Bus2=13384897M784.1.2.3 Linecode=2203016_M_3 Length=0.035 units=km
New Line.110600 Phases=3 Bus1=91556M784.1.2.3 Bus2=91540M784.1.2.3 Linecode=2202001_M_3 Length=0.024 units=km
New Line.110606 Phases=3 Bus1=91548M784.1.2.3 Bus2=94148M784.1.2.3 Linecode=2202006_M_3 Length=0.027 units=km
New Line.110609 Phases=3 Bus1=94148M784.1.2.3 Bus2=94150M784.1.2.3 Linecode=2202006_M_3 Length=0.011 units=km
New Line.110614 Phases=3 Bus1=13384834M784.1.2.3 Bus2=10020818M784.1.2.3 Linecode=2202001_M_3 Length=0.021 units=km
New Line.110617 Phases=3 Bus1=91554M784.1.2.3 Bus2=91564M784.1.2.3 Linecode=2202001_M_3 Length=0.04 units=km
New Line.110624 Phases=3 Bus1=91571M784.1.2.3 Bus2=13384834M784.1.2.3 Linecode=2202001_M_3 Length=0.036 units=km
New Line.110627 Phases=3 Bus1=91564M784.1.2.3 Bus2=91573M784.1.2.3 Linecode=2202001_M_3 Length=0.037 units=km
New Line.110633 Phases=3 Bus1=91579M784.1.2.3 Bus2=91571M784.1.2.3 Linecode=2202001_M_3 Length=0.033 units=km
New Line.110639 Phases=3 Bus1=91584M784.1.2.3 Bus2=91579M784.1.2.3 Linecode=2202001_M_3 Length=0.031 units=km
New Line.110642 Phases=3 Bus1=91584M784.1.2.3 Bus2=91586M784.1.2.3 Linecode=2202001_M_3 Length=0.017 units=km
New Line.110647 Phases=3 Bus1=91591M784.1.2.3 Bus2=91584M784.1.2.3 Linecode=2202001_M_3 Length=0.03 units=km
New Line.110651 Phases=3 Bus1=91586M784.1.2.3 Bus2=91593M784.1.2.3 Linecode=2202001_M_3 Length=0.032 units=km
New Line.110653 Phases=3 Bus1=91595M784.1.2.3 Bus2=91591M784.1.2.3 Linecode=2202001_M_3 Length=0.03 units=km