! UNIDADES CONSUMIDORAS DE BAIXA TENSAO NO TRANSFORMADOR DE DISTRIBUICAO
! Tranformador de Distribuicao: F33001
New Load.1075254 Bus1=90888BF33001.2.3.0 Phases=2 model=8 ZIPV=[0.5 0 0.5 0 0 1 0] Kv=0.220 kW=15.7 PF=0.92 conn=wye
! Tranformador de Distribuicao: F33001
New Load.1642617 Bus1=90888BF33001.1.2.0 Phases=2 model=8 ZIPV=[0.5 0 0.5 0 0 1 0] Kv=0.220 kW=2.07 PF=0.92 conn=wye
! Tranformador de Distribuicao: F33001
New Load.2968975 Bus1=90888BF33001.1.2.3.0 Phases=3 model=8 ZIPV=[0.5 0 0.5 0 0 1 0] Kv=0.220 kW=10.0 PF=0.92 conn=wye
! Tranformador de Distribuicao: F33001
New Load.3630614 Bus1=90888BF33001.1.2.3.0 Phases=3 model=8 ZIPV=[0.5 0 0.5 0 0 1 0] Kv=0.220 kW=16.91 PF=0.92 conn=wye
! Tranformador de Distribuicao: F33001
New Load.3823021 Bus1=90888BF33001.1.2.0 Phases=2 model=8 ZIPV=[0.5 0 0.5 0 0 1 0] Kv=0.220 kW=6.0 PF=0.92 conn=wye
! Tranformador de Distribuicao: F33308
New Load.434054 Bus1=104310440BF33308.1.2.3.0 Phases=3 model=8 ZIPV=[0.5 0 0.5 0 0 1 0] Kv=0.220 kW=2.93 PF=0.92 conn=wye
! Tranformador de Distribuicao: F33308
New Load.2894254 Bus1=104310440BF33308.1.2.3.0 Phases=3 model=8 ZIPV=[0.5 0 0.5 0 0 1 0] Kv=0.220 kW=12.5 PF=0.92 conn=wye
! Tranformador de Distribuicao: F33308
New Load.3494488 Bus1=104310440BF33308.1.2.3.0 Phases=3 model=8 ZIPV=[0.5 0 0.5 0 0 1 0] Kv=0.220 kW=1.0 PF=0.92 conn=wye
! Tranformador de Distribuicao: F33308
New Load.3819499 Bus1=104310440BF33308.1.2.3.0 Phases=3 model=8 ZIPV=[0.5 0 0.5 0 0 1 0] Kv=0.220 kW=12.05 PF=0.92 conn=wye
! Tranformador de Distribuicao: F33308
New Load.5320794 Bus1=104310440BF33308.1.2.3.0 Phases=3 model=8 ZIPV=[0.5 0 0.5 0 0 1 0] Kv=0.220 kW=20.78 PF=0.92 conn=wye
! Tranformador de Distribuicao: F33513
New Load.252 Bus1=104301339BF33513.1.2.3.0 Phases=3 model=8 ZIPV=[0.5 0 0.5 0 0 1 0] Kv=0.220 kW=8.03 PF=0.92 conn=wye
! Tranformador de Distribuicao: F33513
New Load.1236383 Bus1=104301339BF33513.1.0 Phases=1 model=8 ZIPV=[0.5 0 0.5 0 0 1 0] Kv=0.127 kW=8.315 PF=0.92 conn=wye
! Tranformador de Distribuicao: F33513
New Load.1475034 Bus1=104301339BF33513.1.2.3.0 Phases=3 model=8 ZIPV=[0.5 0 0.5 0 0 1 0] Kv=0.220 kW=1.72 PF=0.92 conn=wye
! Tranformador de Distribuicao: F33513
New Load.1643096 Bus1=104301339BF33513.1.2.3.0 Phases=3 model=8 ZIPV=[0.5 0 0.5 0 0 1 0] Kv=0.220 kW=13.0 PF=0.92 conn=wye
! Tranformador de Distribuicao: F33513
New Load.2233677 Bus1=104301339BF33513.3.1.0 Phases=2 model=8 ZIPV=[0.5 0 0.5 0 0 1 0] Kv=0.220 kW=8.28 PF=0.92 conn=wye
! Tranformador de Distribuicao: F33513
New Load.2261565 Bus1=104301339BF33513.1.2.3.0 Phases=3 model=8 ZIPV=[0.5 0 0.5 0 0 1 0] Kv=0.380 kW=1.13 PF=0.92 conn=wye
! Tranformador de Distribuicao: F33513
New Load.2312817 Bus1=104301339BF33513.3.1.0 Phases=2 model=8 ZIPV=[0.5 0 0.5 0 0 1 0] Kv=0.220 kW=10.5 PF=0.92 conn=wye
! Tranformador de Distribuicao: F33513
New Load.2417422 Bus1=104301339BF33513.1.2.3.0 Phases=3 model=8 ZIPV=[0.5 0 0.5 0 0 1 0] Kv=0.220 kW=9.39 PF=0.92 conn=wye
! Tranformador de Distribuicao: F33513
New Load.2638880 Bus1=104301339BF33513.1.2.0 Phases=2 model=8 ZIPV=[0.5 0 0.5 0 0 1 0] Kv=0.220 kW=7.99 PF=0.92 conn=wye
! Tranformador de Distribuicao: F33513
New Load.3595478 Bus1=104301339BF33513.1.2.3.0 Phases=3 model=8 ZIPV=[0.5 0 0.5 0 0 1 0] Kv=0.220 kW=13.0 PF=0.92 conn=wye
! Tranformador de Distribuicao: F33513
New Load.3867382 Bus1=104301339BF33513.1.2.0 Phases=2 model=8 ZIPV=[0.5 0 0.5 0 0 1 0] Kv=0.220 kW=15.0 PF=0.92 conn=wye
! Tranformador de Distribuicao: F33513
New Load.4062881 Bus1=104301339BF33513.1.2.3.0 Phases=3 model=8 ZIPV=[0.5 0 0.5 0 0 1 0] Kv=0.220 kW=9.55 PF=0.92 conn=wye
! Tranformador de Distribuicao: F33513
New Load.4375995 Bus1=104301339BF33513.1.2.3.0 Phases=3 model=8 ZIPV=[0.5 0 0.5 0 0 1 0] Kv=0.220 kW=8.38 PF=0.92 conn=wye
! Tranformador de Distribuicao: F33513
New Load.5137071 Bus1=104301339BF33513.2.3.0 Phases=2 model=8 ZIPV=[0.5 0 0.5 0 0 1 0] Kv=0.220 kW=13.57 PF=0.92 conn=wye
! Tranformador de Distribuicao: F33513
New Load.5564748 Bus1=104301339BF33513.1.2.3.0 Phases=3 model=8 ZIPV=[0.5 0 0.5 0 0 1 0] Kv=0.220 kW=11.04 PF=0.92 conn=wye
! Tranformador de Distribuicao: F33513
New Load.5577886 Bus1=104301339BF33513.1.2.0 Phases=2 model=8 ZIPV=[0.5 0 0.5 0 0 1 0] Kv=0.220 kW=4.74 PF=0.92 conn=wye
! Tranformador de Distribuicao: F33513
New Load.5707936 Bus1=104301339BF33513.2.3.0 Phases=2 model=8 ZIPV=[0.5 0 0.5 0 0 1 0] Kv=0.220 kW=12.67 PF=0.92 conn=wye
! Tranformador de Distribuicao: F33513
New Load.5925147 Bus1=104301339BF33513.2.3.0 Phases=2 model=8 ZIPV=[0.5 0 0.5 0 0 1 0] Kv=0.220 kW=13.57 PF=0.92 conn=wye
! Tranformador de Distribuicao: F33514
New Load.31217 Bus1=104301347BF33514.1.2.3.0 Phases=3 model=8 ZIPV=[0.5 0 0.5 0 0 1 0] Kv=0.220 kW=14.59 PF=0.92 conn=wye
! Tranformador de Distribuicao: F33514
New Load.199356 Bus1=104301347BF33514.1.2.3.0 Phases=3 model=8 ZIPV=[0.5 0 0.5 0 0 1 0] Kv=0.220 kW=9.71 PF=0.92 conn=wye
! Tranformador de Distribuicao: F33514
New Load.736829 Bus1=104301347BF33514.1.2.3.0 Phases=3 model=8 ZIPV=[0.5 0 0.5 0 0 1 0] Kv=0.220 kW=4.97 PF=0.92 conn=wye
! Tranformador de Distribuicao: F33514
New Load.784344 Bus1=104301347BF33514.1.2.3.0 Phases=3 model=8 ZIPV=[0.5 0 0.5 0 0 1 0] Kv=0.220 kW=13.64 PF=0.92 conn=wye
! Tranformador de Distribuicao: F33514
New Load.1263583 Bus1=104301347BF33514.1.2.3.0 Phases=3 model=8 ZIPV=[0.5 0 0.5 0 0 1 0] Kv=0.220 kW=12.91 PF=0.92 conn=wye
! Tranformador de Distribuicao: F33514
New Load.1355415 Bus1=104301347BF33514.1.2.3.0 Phases=3 model=8 ZIPV=[0.5 0 0.5 0 0 1 0] Kv=0.220 kW=7.94 PF=0.92 conn=wye
! Tranformador de Distribuicao: F33514
New Load.1495898 Bus1=104301347BF33514.1.2.3.0 Phases=3 model=8 ZIPV=[0.5 0 0.5 0 0 1 0] Kv=0.220 kW=10.94 PF=0.92 conn=wye
! Tranformador de Distribuicao: F33514
New Load.1682225 Bus1=104301347BF33514.1.2.3.0 Phases=3 model=8 ZIPV=[0.5 0 0.5 0 0 1 0] Kv=0.220 kW=18.96 PF=0.92 conn=wye
! Tranformador de Distribuicao: F33514
New Load.1729020 Bus1=104301347BF33514.1.2.3.0 Phases=3 model=8 ZIPV=[0.5 0 0.5 0 0 1 0] Kv=0.220 kW=12.63 PF=0.92 conn=wye
! Tranformador de Distribuicao: F33514
New Load.1937020 Bus1=104301347BF33514.1.2.3.0 Phases=3 model=8 ZIPV=[0.5 0 0.5 0 0 1 0] Kv=0.220 kW=6.38 PF=0.92 conn=wye
! Tranformador de Distribuicao: F33514
New Load.2135735 Bus1=104301347BF33514.1.2.3.0 Phases=3 model=8 ZIPV=[0.5 0 0.5 0 0 1 0] Kv=0.220 kW=4.82 PF=0.92 conn=wye
! Tranformador de Distribuicao: F33514
New Load.2355300 Bus1=104301347BF33514.1.2.0 Phases=2 model=8 ZIPV=[0.5 0 0.5 0 0 1 0] Kv=0.220 kW=10.29 PF=0.92 conn=wye
! Tranformador de Distribuicao: F33514
New Load.2611061 Bus1=104301347BF33514.1.2.3.0 Phases=3 model=8 ZIPV=[0.5 0 0.5 0 0 1 0] Kv=0.220 kW=11.44 PF=0.92 conn=wye
! Tranformador de Distribuicao: F33514
New Load.3265078 Bus1=104301347BF33514.1.2.3.0 Phases=3 model=8 ZIPV=[0.5 0 0.5 0 0 1 0] Kv=0.220 kW=15.0 PF=0.92 conn=wye
! Tranformador de Distribuicao: F33514
New Load.3314340 Bus1=104301347BF33514.1.0 Phases=1 model=8 ZIPV=[0.5 0 0.5 0 0 1 0] Kv=0.127 kW=4.59 PF=0.92 conn=wye
! Tranformador de Distribuicao: F33514
New Load.3458532 Bus1=104301347BF33514.1.2.0 Phases=2 model=8 ZIPV=[0.5 0 0.5 0 0 1 0] Kv=0.220 kW=13.59 PF=0.92 conn=wye
! Tranformador de Distribuicao: F33514
New Load.4013084 Bus1=104301347BF33514.1.2.3.0 Phases=3 model=8 ZIPV=[0.5 0 0.5 0 0 1 0] Kv=0.220 kW=14.72 PF=0.92 conn=wye
! Tranformador de Distribuicao: F33514
New Load.4356780 Bus1=104301347BF33514.1.2.3.0 Phases=3 model=8 ZIPV=[0.5 0 0.5 0 0 1 0] Kv=0.220 kW=12.84 PF=0.92 conn=wye
! Tranformador de Distribuicao: F33514
New Load.4360501 Bus1=104301347BF33514.1.2.3.0 Phases=3 model=8 ZIPV=[0.5 0 0.5 0 0 1 0] Kv=0.220 kW=13.04 PF=0.92 conn=wye
! Tranformador de Distribuicao: F33514
New Load.4536961 Bus1=104301347BF33514.1.2.3.0 Phases=3 model=8 ZIPV=[0.5 0 0.5 0 0 1 0] Kv=0.220 kW=6.28 PF=0.92 conn=wye
! Tranformador de Distribuicao: F33514
New Load.5460097 Bus1=104301347BF33514.1.2.3.0 Phases=3 model=8 ZIPV=[0.5 0 0.5 0 0 1 0] Kv=0.220 kW=12.62 PF=0.92 conn=wye
! Tranformador de Distribuicao: F33514
New Load.5738130 Bus1=104301347BF33514.1.2.3.0 Phases=3 model=8 ZIPV=[0.5 0 0.5 0 0 1 0] Kv=0.220 kW=19.13 PF=0.92 conn=wye
! Tranformador de Distribuicao: F33514
New Load.5791106 Bus1=104301347BF33514.1.2.0 Phases=2 model=8 ZIPV=[0.5 0 0.5 0 0 1 0] Kv=0.220 kW=1.96 PF=0.92 conn=wye
! Tranformador de Distribuicao: F33515
New Load.127265 Bus1=104301361BF33515.1.2.3.0 Phases=3 model=8 ZIPV=[0.5 0 0.5 0 0 1 0] Kv=0.220 kW=7.12 PF=0.92 conn=wye
! Tranformador de Distribuicao: F33515
New Load.135025 Bus1=104301361BF33515.1.2.3.0 Phases=3 model=8 ZIPV=[0.5 0 0.5 0 0 1 0] Kv=0.380 kW=14.99 PF=0.92 conn=wye
! Tranformador de Distribuicao: F33515
New Load.186235 Bus1=104301361BF33515.1.2.3.0 Phases=3 model=8 ZIPV=[0.5 0 0.5 0 0 1 0] Kv=0.220 kW=15.0 PF=0.92 conn=wye
! Tranformador de Distribuicao: F33515
New Load.388415 Bus1=104301361BF33515.1.2.3.0 Phases=3 model=8 ZIPV=[0.5 0 0.5 0 0 1 0] Kv=0.220 kW=12.41 PF=0.92 conn=wye
! Tranformador de Distribuicao: F33515
New Load.610226 Bus1=104301361BF33515.1.2.3.0 Phases=3 model=8 ZIPV=[0.5 0 0.5 0 0 1 0] Kv=0.220 kW=14.75 PF=0.92 conn=wye
! Tranformador de Distribuicao: F33515
New Load.1393873 Bus1=104301361BF33515.1.2.3.0 Phases=3 model=8 ZIPV=[0.5 0 0.5 0 0 1 0] Kv=0.220 kW=11.02 PF=0.92 conn=wye
! Tranformador de Distribuicao: F33515
New Load.2249956 Bus1=104301361BF33515.1.2.3.0 Phases=3 model=8 ZIPV=[0.5 0 0.5 0 0 1 0] Kv=0.220 kW=14.74 PF=0.92 conn=wye
! Tranformador de Distribuicao: F33515
New Load.2264019 Bus1=104301361BF33515.1.2.3.0 Phases=3 model=8 ZIPV=[0.5 0 0.5 0 0 1 0] Kv=0.220 kW=144.43 PF=0.92 conn=wye
! Tranformador de Distribuicao: F33515
New Load.2498246 Bus1=104301361BF33515.1.2.3.0 Phases=3 model=8 ZIPV=[0.5 0 0.5 0 0 1 0] Kv=0.220 kW=15.01 PF=0.92 conn=wye
! Tranformador de Distribuicao: F33515
New Load.2950074 Bus1=104301361BF33515.1.2.3.0 Phases=3 model=8 ZIPV=[0.5 0 0.5 0 0 1 0] Kv=0.220 kW=12.0 PF=0.92 conn=wye
! Tranformador de Distribuicao: F33515
New Load.3692025 Bus1=104301361BF33515.1.2.3.0 Phases=3 model=8 ZIPV=[0.5 0 0.5 0 0 1 0] Kv=0.220 kW=15.0 PF=0.92 conn=wye
! Tranformador de Distribuicao: F33515
New Load.4369532 Bus1=104301361BF33515.1.2.3.0 Phases=3 model=8 ZIPV=[0.5 0 0.5 0 0 1 0] Kv=0.220 kW=14.87 PF=0.92 conn=wye
! Tranformador de Distribuicao: F33515
New Load.4489814 Bus1=104301361BF33515.1.2.3.0 Phases=3 model=8 ZIPV=[0.5 0 0.5 0 0 1 0] Kv=0.220 kW=37.61 PF=0.92 conn=wye
! Tranformador de Distribuicao: F33515
New Load.5623372 Bus1=104301361BF33515.1.2.3.0 Phases=3 model=8 ZIPV=[0.5 0 0.5 0 0 1 0] Kv=0.220 kW=13.995 PF=0.92 conn=wye
! Tranformador de Distribuicao: F33515
New Load.5820718 Bus1=104301361BF33515.1.2.3.0 Phases=3 model=8 ZIPV=[0.5 0 0.5 0 0 1 0] Kv=0.220 kW=11.82 PF=0.92 conn=wye
! Tranformador de Distribuicao: F33515
New Load.5974484 Bus1=104301361BF33515.1.2.3.0 Phases=3 model=8 ZIPV=[0.5 0 0.5 0 0 1 0] Kv=0.220 kW=15.0 PF=0.92 conn=wye
! Tranformador de Distribuicao: F33516
New Load.464289 Bus1=104301374BF33516.1.2.3.0 Phases=3 model=8 ZIPV=[0.5 0 0.5 0 0 1 0] Kv=0.220 kW=14.84 PF=0.92 conn=wye
! Tranformador de Distribuicao: F33516
New Load.555496 Bus1=104301374BF33516.1.2.0 Phases=2 model=8 ZIPV=[0.5 0 0.5 0 0 1 0] Kv=0.220 kW=13.48 PF=0.92 conn=wye
! Tranformador de Distribuicao: F33516
New Load.872316 Bus1=104301374BF33516.1.2.3.0 Phases=3 model=8 ZIPV=[0.5 0 0.5 0 0 1 0] Kv=0.220 kW=15.0 PF=0.92 conn=wye
! Tranformador de Distribuicao: F33516
New Load.1412453 Bus1=104301374BF33516.1.2.3.0 Phases=3 model=8 ZIPV=[0.5 0 0.5 0 0 1 0] Kv=0.220 kW=11.46 PF=0.92 conn=wye
! Tranformador de Distribuicao: F33516
New Load.1431526 Bus1=104301374BF33516.1.2.3.0 Phases=3 model=8 ZIPV=[0.5 0 0.5 0 0 1 0] Kv=0.220 kW=13.86 PF=0.92 conn=wye
! Tranformador de Distribuicao: F33516
New Load.1497900 Bus1=104301374BF33516.1.2.3.0 Phases=3 model=8 ZIPV=[0.5 0 0.5 0 0 1 0] Kv=0.220 kW=11.14 PF=0.92 conn=wye
! Tranformador de Distribuicao: F33516
New Load.1805611 Bus1=104301374BF33516.1.2.3.0 Phases=3 model=8 ZIPV=[0.5 0 0.5 0 0 1 0] Kv=0.220 kW=10.19 PF=0.92 conn=wye
! Tranformador de Distribuicao: F33516
New Load.2109436 Bus1=104301374BF33516.1.2.3.0 Phases=3 model=8 ZIPV=[0.5 0 0.5 0 0 1 0] Kv=0.220 kW=5.3 PF=0.92 conn=wye
! Tranformador de Distribuicao: F33516
New Load.2306843 Bus1=104301374BF33516.1.2.3.0 Phases=3 model=8 ZIPV=[0.5 0 0.5 0 0 1 0] Kv=0.220 kW=1.4 PF=0.92 conn=wye
! Tranformador de Distribuicao: F33516
New Load.2413475 Bus1=104301374BF33516.1.2.3.0 Phases=3 model=8 ZIPV=[0.5 0 0.5 0 0 1 0] Kv=0.220 kW=1.85 PF=0.92 conn=wye
! Tranformador de Distribuicao: F33516
New Load.2761993 Bus1=104301374BF33516.1.2.3.0 Phases=3 model=8 ZIPV=[0.5 0 0.5 0 0 1 0] Kv=0.220 kW=12.21 PF=0.92 conn=wye
! Tranformador de Distribuicao: F33516
New Load.3173220 Bus1=104301374BF33516.1.2.3.0 Phases=3 model=8 ZIPV=[0.5 0 0.5 0 0 1 0] Kv=0.220 kW=15.0 PF=0.92 conn=wye
! Tranformador de Distribuicao: F33516
New Load.3568945 Bus1=104301374BF33516.1.2.3.0 Phases=3 model=8 ZIPV=[0.5 0 0.5 0 0 1 0] Kv=0.220 kW=7.29 PF=0.92 conn=wye
! Tranformador de Distribuicao: F33516
New Load.4224016 Bus1=104301374BF33516.1.2.3.0 Phases=3 model=8 ZIPV=[0.5 0 0.5 0 0 1 0] Kv=0.220 kW=14.47 PF=0.92 conn=wye
! Tranformador de Distribuicao: F33516
New Load.4230842 Bus1=104301374BF33516.1.2.3.0 Phases=3 model=8 ZIPV=[0.5 0 0.5 0 0 1 0] Kv=0.220 kW=1.55 PF=0.92 conn=wye
! Tranformador de Distribuicao: F33516
New Load.4303497 Bus1=104301374BF33516.1.2.0 Phases=2 model=8 ZIPV=[0.5 0 0.5 0 0 1 0] Kv=0.220 kW=14.64 PF=0.92 conn=wye
! Tranformador de Distribuicao: F33516
New Load.4457447 Bus1=104301374BF33516.1.2.3.0 Phases=3 model=8 ZIPV=[0.5 0 0.5 0 0 1 0] Kv=0.220 kW=14.56 PF=0.92 conn=wye
! Tranformador de Distribuicao: F33516
New Load.4570921 Bus1=104301374BF33516.1.2.3.0 Phases=3 model=8 ZIPV=[0.5 0 0.5 0 0 1 0] Kv=0.220 kW=5.25 PF=0.92 conn=wye
! Tranformador de Distribuicao: F33516
New Load.4692708 Bus1=104301374BF33516.1.2.3.0 Phases=3 model=8 ZIPV=[0.5 0 0.5 0 0 1 0] Kv=0.220 kW=14.79 PF=0.92 conn=wye
! Tranformador de Distribuicao: F33516
New Load.4984321 Bus1=104301374BF33516.1.2.3.0 Phases=3 model=8 ZIPV=[0.5 0 0.5 0 0 1 0] Kv=0.220 kW=11.94 PF=0.92 conn=wye
! Tranformador de Distribuicao: F33516
New Load.5525228 Bus1=104301374BF33516.1.2.3.0 Phases=3 model=8 ZIPV=[0.5 0 0.5 0 0 1 0] Kv=0.220 kW=5.17 PF=0.92 conn=wye
! Tranformador de Distribuicao: F33516
New Load.5778435 Bus1=104301374BF33516.1.2.3.0 Phases=3 model=8 ZIPV=[0.5 0 0.5 0 0 1 0] Kv=0.220 kW=9.07 PF=0.92 conn=wye
! Tranformador de Distribuicao: F33516
New Load.6047529 Bus1=104301374BF33516.1.2.3.0 Phases=3 model=8 ZIPV=[0.5 0 0.5 0 0 1 0] Kv=0.220 kW=5.25 PF=0.92 conn=wye
! Tranformador de Distribuicao: F33769
New Load.592319 Bus1=440876BF33769.2.0 Phases=1 model=8 ZIPV=[0.5 0 0.5 0 0 1 0] Kv=0.127 kW=1.8 PF=0.92 conn=wye
! Tranformador de Distribuicao: F33769
New Load.852443 Bus1=440876BF33769.2.3.0 Phases=2 model=8 ZIPV=[0.5 0 0.5 0 0 1 0] Kv=0.220 kW=9.45 PF=0.92 conn=wye
! Tranformador de Distribuicao: F33769
New Load.981622 Bus1=440876BF33769.3.1.0 Phases=2 model=8 ZIPV=[0.5 0 0.5 0 0 1 0] Kv=0.220 kW=9.45 PF=0.92 conn=wye
! Tranformador de Distribuicao: F33769
New Load.1339596 Bus1=440876BF33769.1.2.0 Phases=2 model=8 ZIPV=[0.5 0 0.5 0 0 1 0] Kv=0.220 kW=12.0 PF=0.92 conn=wye
! Tranformador de Distribuicao: F33769
New Load.1419511 Bus1=440876BF33769.1.2.3.0 Phases=3 model=8 ZIPV=[0.5 0 0.5 0 0 1 0] Kv=0.220 kW=8.14 PF=0.92 conn=wye
! Tranformador de Distribuicao: F33769
New Load.1758506 Bus1=440876BF33769.1.2.0 Phases=2 model=8 ZIPV=[0.5 0 0.5 0 0 1 0] Kv=0.220 kW=9.45 PF=0.92 conn=wye
! Tranformador de Distribuicao: F33769
New Load.1864950 Bus1=440876BF33769.3.1.0 Phases=2 model=8 ZIPV=[0.5 0 0.5 0 0 1 0] Kv=0.220 kW=9.45 PF=0.92 conn=wye
! Tranformador de Distribuicao: F33769
New Load.1915748 Bus1=440876BF33769.3.0 Phases=1 model=8 ZIPV=[0.5 0 0.5 0 0 1 0] Kv=0.127 kW=1.8 PF=0.92 conn=wye
! Tranformador de Distribuicao: F33769
New Load.1956121 Bus1=440876BF33769.1.2.0 Phases=2 model=8 ZIPV=[0.5 0 0.5 0 0 1 0] Kv=0.220 kW=11.08 PF=0.92 conn=wye
! Tranformador de Distribuicao: F33769
New Load.2656977 Bus1=440876BF33769.1.2.0 Phases=2 model=8 ZIPV=[0.5 0 0.5 0 0 1 0] Kv=0.220 kW=9.45 PF=0.92 conn=wye
! Tranformador de Distribuicao: F33769
New Load.2831035 Bus1=440876BF33769.2.0 Phases=1 model=8 ZIPV=[0.5 0 0.5 0 0 1 0] Kv=0.127 kW=3.1 PF=0.92 conn=wye
! Tranformador de Distribuicao: F33769
New Load.4034585 Bus1=440876BF33769.2.0 Phases=1 model=8 ZIPV=[0.5 0 0.5 0 0 1 0] Kv=0.127 kW=1.8 PF=0.92 conn=wye
! Tranformador de Distribuicao: F33769
New Load.4356747 Bus1=440876BF33769.2.3.0 Phases=2 model=8 ZIPV=[0.5 0 0.5 0 0 1 0] Kv=0.220 kW=9.45 PF=0.92 conn=wye
! Tranformador de Distribuicao: F33769
New Load.4494850 Bus1=440876BF33769.1.2.0 Phases=2 model=8 ZIPV=[0.5 0 0.5 0 0 1 0] Kv=0.220 kW=9.45 PF=0.92 conn=wye
! Tranformador de Distribuicao: F33769
New Load.4793873 Bus1=440876BF33769.3.1.0 Phases=2 model=8 ZIPV=[0.5 0 0.5 0 0 1 0] Kv=0.220 kW=9.45 PF=0.92 conn=wye
! Tranformador de Distribuicao: F33769
New Load.4921166 Bus1=440876BF33769.1.2.3.0 Phases=3 model=8 ZIPV=[0.5 0 0.5 0 0 1 0] Kv=0.220 kW=11.07 PF=0.92 conn=wye
! Tranformador de Distribuicao: F33769
New Load.4931506 Bus1=440876BF33769.1.2.0 Phases=2 model=8 ZIPV=[0.5 0 0.5 0 0 1 0] Kv=0.220 kW=9.45 PF=0.92 conn=wye
! Tranformador de Distribuicao: F33769
New Load.5033590 Bus1=440876BF33769.2.3.0 Phases=2 model=8 ZIPV=[0.5 0 0.5 0 0 1 0] Kv=0.220 kW=13.695 PF=0.92 conn=wye
! Tranformador de Distribuicao: F33769
New Load.5182623 Bus1=440876BF33769.2.3.0 Phases=2 model=8 ZIPV=[0.5 0 0.5 0 0 1 0] Kv=0.220 kW=9.45 PF=0.92 conn=wye
! Tranformador de Distribuicao: F33769
New Load.5339218 Bus1=440876BF33769.1.2.0 Phases=2 model=8 ZIPV=[0.5 0 0.5 0 0 1 0] Kv=0.220 kW=11.0 PF=0.92 conn=wye
! Tranformador de Distribuicao: F33769
New Load.5420218 Bus1=440876BF33769.1.2.0 Phases=2 model=8 ZIPV=[0.5 0 0.5 0 0 1 0] Kv=0.220 kW=13.14 PF=0.92 conn=wye
! Tranformador de Distribuicao: F33769
New Load.5731657 Bus1=440876BF33769.1.2.0 Phases=2 model=8 ZIPV=[0.5 0 0.5 0 0 1 0] Kv=0.220 kW=9.45 PF=0.92 conn=wye
! Tranformador de Distribuicao: F33769
New Load.6230374 Bus1=440876BF33769.3.1.0 Phases=2 model=8 ZIPV=[0.5 0 0.5 0 0 1 0] Kv=0.220 kW=9.45 PF=0.92 conn=wye
! Tranformador de Distribuicao: F38422
New Load.689512 Bus1=12054628BF38422.1.2.3.0 Phases=3 model=8 ZIPV=[0.5 0 0.5 0 0 1 0] Kv=0.220 kW=3.88 PF=0.92 conn=wye
! Tranformador de Distribuicao: F38588
New Load.900654 Bus1=91471BF38588.1.2.0 Phases=2 model=8 ZIPV=[0.5 0 0.5 0 0 1 0] Kv=0.220 kW=10.9 PF=0.92 conn=wye
! Tranformador de Distribuicao: F38588
New Load.986546 Bus1=91471BF38588.1.2.3.0 Phases=3 model=8 ZIPV=[0.5 0 0.5 0 0 1 0] Kv=0.220 kW=15.0 PF=0.92 conn=wye
! Tranformador de Distribuicao: F38588
New Load.1306462 Bus1=91471BF38588.3.1.0 Phases=2 model=8 ZIPV=[0.5 0 0.5 0 0 1 0] Kv=0.220 kW=9.44 PF=0.92 conn=wye
! Tranformador de Distribuicao: F38588
New Load.1367904 Bus1=91471BF38588.2.3.0 Phases=2 model=8 ZIPV=[0.5 0 0.5 0 0 1 0] Kv=0.220 kW=3.0 PF=0.92 conn=wye
! Tranformador de Distribuicao: F38588
New Load.2951941 Bus1=91471BF38588.2.0 Phases=1 model=8 ZIPV=[0.5 0 0.5 0 0 1 0] Kv=0.127 kW=7.39 PF=0.92 conn=wye
! Tranformador de Distribuicao: F38588
New Load.4968919 Bus1=91471BF38588.1.2.0 Phases=2 model=8 ZIPV=[0.5 0 0.5 0 0 1 0] Kv=0.220 kW=8.0 PF=0.92 conn=wye
! Tranformador de Distribuicao: F42110
New Load.930821 Bus1=104146704BF42110.1.0 Phases=1 model=8 ZIPV=[0.5 0 0.5 0 0 1 0] Kv=0.127 kW=0.25 PF=0.92 conn=wye
! Tranformador de Distribuicao: F42110
New Load.1450285 Bus1=104146704BF42110.1.2.3.0 Phases=3 model=8 ZIPV=[0.5 0 0.5 0 0 1 0] Kv=0.220 kW=8.0 PF=0.92 conn=wye
! Tranformador de Distribuicao: F42110
New Load.3617437 Bus1=104146704BF42110.1.0 Phases=1 model=8 ZIPV=[0.5 0 0.5 0 0 1 0] Kv=0.127 kW=2.0 PF=0.92 conn=wye
! Tranformador de Distribuicao: F42110
New Load.4242254 Bus1=104146704BF42110.2.0 Phases=1 model=8 ZIPV=[0.5 0 0.5 0 0 1 0] Kv=0.127 kW=2.0 PF=0.92 conn=wye
! Tranformador de Distribuicao: F42111
New Load.49975 Bus1=94042BF42111.3.1.0 Phases=2 model=8 ZIPV=[0.5 0 0.5 0 0 1 0] Kv=0.220 kW=10.1 PF=0.92 conn=wye
! Tranformador de Distribuicao: F42111
New Load.109746 Bus1=94042BF42111.2.3.0 Phases=2 model=8 ZIPV=[0.5 0 0.5 0 0 1 0] Kv=0.220 kW=2.01 PF=0.92 conn=wye
! Tranformador de Distribuicao: F42111
New Load.393722 Bus1=94042BF42111.1.2.0 Phases=2 model=8 ZIPV=[0.5 0 0.5 0 0 1 0] Kv=0.220 kW=10.1 PF=0.92 conn=wye
! Tranformador de Distribuicao: F42111
New Load.501198 Bus1=94042BF42111.3.1.0 Phases=2 model=8 ZIPV=[0.5 0 0.5 0 0 1 0] Kv=0.220 kW=8.82 PF=0.92 conn=wye
! Tranformador de Distribuicao: F42111
New Load.531260 Bus1=94042BF42111.1.2.0 Phases=2 model=8 ZIPV=[0.5 0 0.5 0 0 1 0] Kv=0.220 kW=10.1 PF=0.92 conn=wye
! Tranformador de Distribuicao: F42111
New Load.573047 Bus1=94042BF42111.1.2.0 Phases=2 model=8 ZIPV=[0.5 0 0.5 0 0 1 0] Kv=0.220 kW=1.72 PF=0.92 conn=wye
! Tranformador de Distribuicao: F42111
New Load.594353 Bus1=94042BF42111.1.2.3.0 Phases=3 model=8 ZIPV=[0.5 0 0.5 0 0 1 0] Kv=0.220 kW=6.04 PF=0.92 conn=wye
! Tranformador de Distribuicao: F42111
New Load.646709 Bus1=94042BF42111.3.1.0 Phases=2 model=8 ZIPV=[0.5 0 0.5 0 0 1 0] Kv=0.220 kW=10.1 PF=0.92 conn=wye
! Tranformador de Distribuicao: F42111
New Load.747139 Bus1=94042BF42111.3.1.0 Phases=2 model=8 ZIPV=[0.5 0 0.5 0 0 1 0] Kv=0.220 kW=10.1 PF=0.92 conn=wye
! Tranformador de Distribuicao: F42111
New Load.1108805 Bus1=94042BF42111.2.3.0 Phases=2 model=8 ZIPV=[0.5 0 0.5 0 0 1 0] Kv=0.220 kW=10.1 PF=0.92 conn=wye
! Tranformador de Distribuicao: F42111
New Load.1373481 Bus1=94042BF42111.2.3.0 Phases=2 model=8 ZIPV=[0.5 0 0.5 0 0 1 0] Kv=0.220 kW=10.1 PF=0.92 conn=wye
! Tranformador de Distribuicao: F42111
New Load.1381823 Bus1=94042BF42111.1.2.3.0 Phases=3 model=8 ZIPV=[0.5 0 0.5 0 0 1 0] Kv=0.220 kW=9.8 PF=0.92 conn=wye
! Tranformador de Distribuicao: F42111
New Load.1457017 Bus1=94042BF42111.3.1.0 Phases=2 model=8 ZIPV=[0.5 0 0.5 0 0 1 0] Kv=0.220 kW=1.0 PF=0.92 conn=wye
! Tranformador de Distribuicao: F42111
New Load.1473165 Bus1=94042BF42111.3.1.0 Phases=2 model=8 ZIPV=[0.5 0 0.5 0 0 1 0] Kv=0.220 kW=10.1 PF=0.92 conn=wye
! Tranformador de Distribuicao: F42111
New Load.1510232 Bus1=94042BF42111.2.3.0 Phases=2 model=8 ZIPV=[0.5 0 0.5 0 0 1 0] Kv=0.220 kW=10.1 PF=0.92 conn=wye
! Tranformador de Distribuicao: F42111
New Load.1599490 Bus1=94042BF42111.2.3.0 Phases=2 model=8 ZIPV=[0.5 0 0.5 0 0 1 0] Kv=0.220 kW=10.1 PF=0.92 conn=wye
! Tranformador de Distribuicao: F42111
New Load.1959533 Bus1=94042BF42111.1.2.0 Phases=2 model=8 ZIPV=[0.5 0 0.5 0 0 1 0] Kv=0.220 kW=10.1 PF=0.92 conn=wye
! Tranformador de Distribuicao: F42111
New Load.2126108 Bus1=94042BF42111.1.2.0 Phases=2 model=8 ZIPV=[0.5 0 0.5 0 0 1 0] Kv=0.220 kW=10.1 PF=0.92 conn=wye
! Tranformador de Distribuicao: F42111
New Load.2143054 Bus1=94042BF42111.3.1.0 Phases=2 model=8 ZIPV=[0.5 0 0.5 0 0 1 0] Kv=0.220 kW=10.1 PF=0.92 conn=wye
! Tranformador de Distribuicao: F42111
New Load.2211953 Bus1=94042BF42111.2.3.0 Phases=2 model=8 ZIPV=[0.5 0 0.5 0 0 1 0] Kv=0.220 kW=10.1 PF=0.92 conn=wye
! Tranformador de Distribuicao: F42111
New Load.2298011 Bus1=94042BF42111.1.2.0 Phases=2 model=8 ZIPV=[0.5 0 0.5 0 0 1 0] Kv=0.220 kW=10.1 PF=0.92 conn=wye
! Tranformador de Distribuicao: F42111
New Load.2504037 Bus1=94042BF42111.3.1.0 Phases=2 model=8 ZIPV=[0.5 0 0.5 0 0 1 0] Kv=0.220 kW=10.1 PF=0.92 conn=wye
! Tranformador de Distribuicao: F42111
New Load.2595551 Bus1=94042BF42111.1.2.0 Phases=2 model=8 ZIPV=[0.5 0 0.5 0 0 1 0] Kv=0.220 kW=10.1 PF=0.92 conn=wye
! Tranformador de Distribuicao: F42111
New Load.2618995 Bus1=94042BF42111.3.1.0 Phases=2 model=8 ZIPV=[0.5 0 0.5 0 0 1 0] Kv=0.220 kW=10.1 PF=0.92 conn=wye
! Tranformador de Distribuicao: F42111
New Load.2645610 Bus1=94042BF42111.1.2.0 Phases=2 model=8 ZIPV=[0.5 0 0.5 0 0 1 0] Kv=0.220 kW=10.1 PF=0.92 conn=wye
! Tranformador de Distribuicao: F42111
New Load.2749423 Bus1=94042BF42111.1.2.0 Phases=2 model=8 ZIPV=[0.5 0 0.5 0 0 1 0] Kv=0.220 kW=10.1 PF=0.92 conn=wye
! Tranformador de Distribuicao: F42111
New Load.2852526 Bus1=94042BF42111.1.2.0 Phases=2 model=8 ZIPV=[0.5 0 0.5 0 0 1 0] Kv=0.220 kW=10.1 PF=0.92 conn=wye
! Tranformador de Distribuicao: F42111
New Load.2933744 Bus1=94042BF42111.2.3.0 Phases=2 model=8 ZIPV=[0.5 0 0.5 0 0 1 0] Kv=0.220 kW=10.1 PF=0.92 conn=wye
! Tranformador de Distribuicao: F42111
New Load.3052112 Bus1=94042BF42111.1.2.3.0 Phases=3 model=8 ZIPV=[0.5 0 0.5 0 0 1 0] Kv=0.220 kW=12.41 PF=0.92 conn=wye
! Tranformador de Distribuicao: F42111
New Load.3365184 Bus1=94042BF42111.1.2.0 Phases=2 model=8 ZIPV=[0.5 0 0.5 0 0 1 0] Kv=0.220 kW=10.1 PF=0.92 conn=wye
! Tranformador de Distribuicao: F42111
New Load.3537401 Bus1=94042BF42111.1.2.0 Phases=2 model=8 ZIPV=[0.5 0 0.5 0 0 1 0] Kv=0.220 kW=10.1 PF=0.92 conn=wye
! Tranformador de Distribuicao: F42111
New Load.3553455 Bus1=94042BF42111.3.1.0 Phases=2 model=8 ZIPV=[0.5 0 0.5 0 0 1 0] Kv=0.220 kW=0.0 PF=0.92 conn=wye
! Tranformador de Distribuicao: F42111
New Load.3641610 Bus1=94042BF42111.1.2.0 Phases=2 model=8 ZIPV=[0.5 0 0.5 0 0 1 0] Kv=0.220 kW=10.1 PF=0.92 conn=wye
! Tranformador de Distribuicao: F42111
New Load.3660056 Bus1=94042BF42111.1.0 Phases=1 model=8 ZIPV=[0.5 0 0.5 0 0 1 0] Kv=0.127 kW=0.2 PF=0.92 conn=wye
! Tranformador de Distribuicao: F42111
New Load.3688617 Bus1=94042BF42111.2.3.0 Phases=2 model=8 ZIPV=[0.5 0 0.5 0 0 1 0] Kv=0.220 kW=7.66 PF=0.92 conn=wye
! Tranformador de Distribuicao: F42111
New Load.3733902 Bus1=94042BF42111.1.2.0 Phases=2 model=8 ZIPV=[0.5 0 0.5 0 0 1 0] Kv=0.220 kW=10.1 PF=0.92 conn=wye
! Tranformador de Distribuicao: F42111
New Load.3769005 Bus1=94042BF42111.1.2.0 Phases=2 model=8 ZIPV=[0.5 0 0.5 0 0 1 0] Kv=0.220 kW=20.0 PF=0.92 conn=wye
! Tranformador de Distribuicao: F42111
New Load.3965668 Bus1=94042BF42111.1.2.0 Phases=2 model=8 ZIPV=[0.5 0 0.5 0 0 1 0] Kv=0.220 kW=10.1 PF=0.92 conn=wye
! Tranformador de Distribuicao: F42111
New Load.4091853 Bus1=94042BF42111.1.0 Phases=1 model=8 ZIPV=[0.5 0 0.5 0 0 1 0] Kv=0.127 kW=1.0 PF=0.92 conn=wye
! Tranformador de Distribuicao: F42111
New Load.4162984 Bus1=94042BF42111.1.2.0 Phases=2 model=8 ZIPV=[0.5 0 0.5 0 0 1 0] Kv=0.220 kW=10.1 PF=0.92 conn=wye
! Tranformador de Distribuicao: F42111
New Load.4188334 Bus1=94042BF42111.3.1.0 Phases=2 model=8 ZIPV=[0.5 0 0.5 0 0 1 0] Kv=0.220 kW=10.1 PF=0.92 conn=wye
! Tranformador de Distribuicao: F42111
New Load.4612649 Bus1=94042BF42111.1.2.0 Phases=2 model=8 ZIPV=[0.5 0 0.5 0 0 1 0] Kv=0.220 kW=10.1 PF=0.92 conn=wye
! Tranformador de Distribuicao: F42111
New Load.4698263 Bus1=94042BF42111.2.3.0 Phases=2 model=8 ZIPV=[0.5 0 0.5 0 0 1 0] Kv=0.220 kW=4.64 PF=0.92 conn=wye
! Tranformador de Distribuicao: F42111
New Load.4798262 Bus1=94042BF42111.2.3.0 Phases=2 model=8 ZIPV=[0.5 0 0.5 0 0 1 0] Kv=0.220 kW=10.1 PF=0.92 conn=wye
! Tranformador de Distribuicao: F42111
New Load.4889406 Bus1=94042BF42111.1.2.0 Phases=2 model=8 ZIPV=[0.5 0 0.5 0 0 1 0] Kv=0.220 kW=10.1 PF=0.92 conn=wye
! Tranformador de Distribuicao: F42111
New Load.4987596 Bus1=94042BF42111.2.3.0 Phases=2 model=8 ZIPV=[0.5 0 0.5 0 0 1 0] Kv=0.220 kW=10.1 PF=0.92 conn=wye
! Tranformador de Distribuicao: F42111
New Load.5004821 Bus1=94042BF42111.2.3.0 Phases=2 model=8 ZIPV=[0.5 0 0.5 0 0 1 0] Kv=0.220 kW=10.1 PF=0.92 conn=wye
! Tranformador de Distribuicao: F42111
New Load.5324621 Bus1=94042BF42111.2.3.0 Phases=2 model=8 ZIPV=[0.5 0 0.5 0 0 1 0] Kv=0.220 kW=10.1 PF=0.92 conn=wye
! Tranformador de Distribuicao: F42111
New Load.5519550 Bus1=94042BF42111.2.3.0 Phases=2 model=8 ZIPV=[0.5 0 0.5 0 0 1 0] Kv=0.220 kW=10.1 PF=0.92 conn=wye
! Tranformador de Distribuicao: F42111
New Load.5557747 Bus1=94042BF42111.3.1.0 Phases=2 model=8 ZIPV=[0.5 0 0.5 0 0 1 0] Kv=0.220 kW=10.1 PF=0.92 conn=wye
! Tranformador de Distribuicao: F42111
New Load.5681433 Bus1=94042BF42111.1.0 Phases=1 model=8 ZIPV=[0.5 0 0.5 0 0 1 0] Kv=0.127 kW=0.96 PF=0.92 conn=wye
! Tranformador de Distribuicao: F42111
New Load.5698810 Bus1=94042BF42111.1.0 Phases=1 model=8 ZIPV=[0.5 0 0.5 0 0 1 0] Kv=0.127 kW=1.87 PF=0.92 conn=wye
! Tranformador de Distribuicao: F42111
New Load.5801280 Bus1=94042BF42111.2.3.0 Phases=2 model=8 ZIPV=[0.5 0 0.5 0 0 1 0] Kv=0.220 kW=10.1 PF=0.92 conn=wye
! Tranformador de Distribuicao: F42111
New Load.5943367 Bus1=94042BF42111.3.1.0 Phases=2 model=8 ZIPV=[0.5 0 0.5 0 0 1 0] Kv=0.220 kW=10.1 PF=0.92 conn=wye
! Tranformador de Distribuicao: F42113
New Load.403613 Bus1=94043BF42113.1.2.0 Phases=2 model=8 ZIPV=[0.5 0 0.5 0 0 1 0] Kv=0.220 kW=10.2 PF=0.92 conn=wye
! Tranformador de Distribuicao: F42113
New Load.593591 Bus1=94043BF42113.1.2.0 Phases=2 model=8 ZIPV=[0.5 0 0.5 0 0 1 0] Kv=0.220 kW=10.2 PF=0.92 conn=wye
! Tranformador de Distribuicao: F42113
New Load.910488 Bus1=94043BF42113.1.2.0 Phases=2 model=8 ZIPV=[0.5 0 0.5 0 0 1 0] Kv=0.220 kW=10.2 PF=0.92 conn=wye
! Tranformador de Distribuicao: F42113
New Load.1025445 Bus1=94043BF42113.3.1.0 Phases=2 model=8 ZIPV=[0.5 0 0.5 0 0 1 0] Kv=0.220 kW=0.0 PF=0.92 conn=wye
! Tranformador de Distribuicao: F42113
New Load.1965602 Bus1=94043BF42113.1.0 Phases=1 model=8 ZIPV=[0.5 0 0.5 0 0 1 0] Kv=0.127 kW=1.0 PF=0.92 conn=wye
! Tranformador de Distribuicao: F42113
New Load.2061363 Bus1=94043BF42113.3.1.0 Phases=2 model=8 ZIPV=[0.5 0 0.5 0 0 1 0] Kv=0.220 kW=3.3 PF=0.92 conn=wye
! Tranformador de Distribuicao: F42113
New Load.2583416 Bus1=94043BF42113.2.3.0 Phases=2 model=8 ZIPV=[0.5 0 0.5 0 0 1 0] Kv=0.220 kW=14.215 PF=0.92 conn=wye
! Tranformador de Distribuicao: F42113
New Load.2787854 Bus1=94043BF42113.3.1.0 Phases=2 model=8 ZIPV=[0.5 0 0.5 0 0 1 0] Kv=0.220 kW=10.2 PF=0.92 conn=wye
! Tranformador de Distribuicao: F42113
New Load.2906081 Bus1=94043BF42113.1.0 Phases=1 model=8 ZIPV=[0.5 0 0.5 0 0 1 0] Kv=0.127 kW=2.0 PF=0.92 conn=wye
! Tranformador de Distribuicao: F42113
New Load.2990151 Bus1=94043BF42113.1.2.0 Phases=2 model=8 ZIPV=[0.5 0 0.5 0 0 1 0] Kv=0.220 kW=2.94 PF=0.92 conn=wye
! Tranformador de Distribuicao: F42113